168
30 30 30 90 90 90
C 3.69255 5.40043 6.38602
C 2.13186 4.16188 4.78409
C 4.01735 5.56534 3.83836
H 4.40997 4.66815 6.81292
H 3.59859 6.14139 7.2076
H 1.05862 3.91755 4.64312
H 2.62297 3.16732 4.72449
H 4.75683 4.78354 3.56196
H 4.21709 6.35724 3.08985
N 4.42964 5.97641 5.21863
N 2.41476 4.64826 6.17201
N 2.67179 4.94258 3.62478
N 4.585 7.49097 5.34366
N 1.21544 5.39603 6.75107
N 1.64834 5.96829 3.14399
O 4.51779 8.2352 4.2856
O 5.00279 7.98929 6.46519
O 0.02893 5.14725 6.29414
O 1.37102 6.12607 7.81007
O 0.39854 5.63176 3.07906
O 2.0355 7.12709 2.71628
C 5.55898 8.70943 11.8889
C 7.46104 10.2173 11.1044
C 6.30879 8.69596 9.42401
H 4.66918 9.35649 12.0543
H 5.40547 7.91003 12.6406
H 8.46863 10.5731 11.4062
H 6.9118 11.1619 10.904
H 5.65411 9.37713 8.83997
H 6.5576 7.90976 8.68039
N 5.39864 8.18599 10.4954
N 6.74474 9.55273 12.2414
N 7.51622 9.50667 9.7874
N 5.28108 6.66307 10.4644
N 7.73031 8.79726 13.1289
N 8.80113 8.69223 9.6558
O 5.62371 6.01501 9.39575
O 4.62707 6.056 11.4045
O 8.91286 9.29497 13.319
O 7.31246 7.82101 13.8712
O 9.7542 8.83461 10.5219
O 8.98956 7.97261 8.59566
C 11.9528 11.3198 2.36519
C 14.0618 9.95431 2.72387
C 13.1333 11.3479 4.64172
H 11.1727 10.5308 2.4482
H 11.49 12.0377 1.66062
H 15.0179 9.66074 2.24177
H 13.5925 8.97556 2.9604
H 12.577 10.6042 5.24852
H 13.4574 12.0904 5.40067
N 12.0565 11.8794 3.74895
N 13.1361 10.6311 1.7582
N 14.2929 10.5988 4.05649
N 12.0138 13.4072 3.76161
N 13.9063 11.5715 0.83524
N 15.5712 11.4344 4.04245
O 12.4028 14.0434 4.82153
O 11.3749 14.0368 2.82684
O 15.1939 11.4612 0.74066
O 13.2586 12.328 0.0063
O 16.6179 10.9917 3.41846
O 15.6565 12.4938 4.78116
C 10.2551 2.85392 7.60037
C 8.77762 4.10419 9.301
C 10.7475 2.72904 10.1119
H 10.9914 3.51034 7.08823
H 10.0355 2.09905 6.81637
H 7.69267 4.26082 9.47913
H 9.18372 5.13583 9.39094
H 11.469 3.56542 10.2374
H 11.0651 2.00491 10.8873
N 11.0252 2.2369 8.72563
N 9.06755 3.72199 7.88237
N 9.40589 3.32271 10.4137
N 11.0261 0.71033 8.64506
N 7.80782 3.20448 7.19435
N 8.44578 2.28745 10.9994
O 10.7356 0.00105 9.68892
O 11.5228 0.14455 7.59058
O 6.65277 3.66304 7.56396
O 7.91261 2.47303 6.13031
O 7.17544 2.53945 11.0354
O 8.9149 1.24524 11.6085
C 12.1757 8.65085 7.5322
C 14.1384 10.126 8.22217
C 12.9971 8.68157 9.97147
H 11.2993 9.32199 7.39564
H 11.9649 7.84852 6.79757
H 15.1396 10.465 7.88312
H 13.6078 11.0811 8.42388
H 12.363 9.40911 10.5214
H 13.2323 7.92725 10.7513
N 12.0554 8.15058 8.93813
N 13.371 9.4542 7.12326
N 14.2205 9.44039 9.55155
N 11.9495 6.62757 8.99703
N 14.3053 8.64951 6.22364
N 15.4796 8.58208 9.65047
O 12.3491 5.99955 10.0576
O 11.2498 6.00356 8.10186
O 15.5279 9.05169 6.06513
O 13.8162 7.744 5.43581
O 16.46 8.76736 8.82386
O 15.615 7.76406 10.645
C 10.411 5.43608 2.12453
C 8.78011 4.23228 3.68662
C 10.6686 5.59339 4.67636
H 11.1308 4.66749 1.77011
H 10.3768 6.14478 1.27096
H 7.69881 4.00814 3.79999
H 9.24801 3.22697 3.75406
H 11.3788 4.77326 4.91648
H 10.8942 6.34799 5.45572
N 11.0944 6.04027 3.31028
N 9.10964 4.71711 2.30684
N 9.30839 4.99485 4.8624
N 11.1883 7.56181 3.1963
N 7.94393 5.49995 1.70571
N 8.29806 6.03977 5.33034
O 11.1203 8.29277 4.2635
O 11.5766 8.0835 2.07491
O 6.73911 5.24869 2.11074
O 8.14417 6.2497 0.66826
O 7.03206 5.76611 5.28987
O 8.70982 7.14202 5.8709
C 3.64827 2.94469 11.6952
C 2.1191 4.23453 10.0947
C 3.98107 2.79618 9.15696
H 4.40091 3.65227 12.1048
H 3.53018 2.21834 12.5266
H 1.04693 4.48563 9.95663
H 2.61247 5.22878 10.029
H 4.73213 3.5887 8.95019
H 4.20015 2.04274 8.37633
N 4.34481 2.31877 10.5287
N 2.4078 3.75739 11.4853
N 2.64896 3.44457 8.93734
N 4.34598 0.79364 10.6249
N 1.18046 3.08206 12.0916
N 1.61316 2.44704 8.42062
O 4.05158 0.07604 9.58747
O 4.85409 0.23736 11.6796
O 0.0015 3.40589 11.6623
O 1.31527 2.32915 13.137
O 0.35639 2.76024 8.45394
O 1.99702 1.36697 7.81823
C 5.2322 11.394 6.26652
C 7.38131 10.0763 6.03842
C 6.50648 11.4121 4.04686
H 4.5075 10.559 6.14061
H 4.6884 12.0881 6.93541
H 8.32741 9.82456 6.56212
H 6.94583 9.07649 5.82527
H 5.97831 10.6568 3.43014
H 6.85857 12.1439 3.2902
N 5.39323 11.9533 4.88753
N 6.41065 10.7679 6.94698
N 7.64157 10.6723 4.68893
N 5.35987 13.4816 4.87171
N 7.12553 11.7744 7.84467
N 8.93009 11.4914 4.69933
O 5.72476 14.1126 3.80005
O 4.74865 14.1161 5.8213
O 8.40419 11.6771 8.0302
O 6.43284 12.6189 8.54092
O 9.9631 11.0454 5.34321
O 9.02986 12.5525 3.96507
